Auto-Transcript Start Time:  12:20:29, 10 Nov 2024 Nepal Standard Time 
Current Directory: "\\wsl.localhost\Ubuntu\usr\lib\openfoam\openfoam2312\run\test\fluentInterface"

              Welcome to ANSYS Fluent 2024 R1

              Copyright 1987-2024 ANSYS, Inc. All Rights Reserved.
              Unauthorized use, distribution or duplication is prohibited.
              This product is subject to U.S. laws governing export and re-export.
              For full Legal Notice, see documentation.

Build Time: Nov 22 2023 10:31:01 EST  Build Id: 10184  
 
Connected License Server List:	1055@localhost
Host spawning Node 0 on machine "SANJEEV" (win64).

-----------------------------------------------------------------------------------
ID    Hostname  Core  O.S.         PID    Vendor                                  
-----------------------------------------------------------------------------------
n0    SANJEEV   1/20  Windows-x64  34176  12th Gen Intel(R) Core(TM) i7-12700H    
host  SANJEEV         Windows-x64  11888  12th Gen Intel(R) Core(TM) i7-12700H    

MPI Option Selected: intel
-----------------------------------------------------------------------------------

Cleanup script file is \\\\wsl.localhost\\Ubuntu\\usr\\lib\\openfoam\\openfoam2312\\run\\test\\fluentInterface\\cleanup-fluent-SANJEEV-11888.bat
(cx-gui-do cx-activate-tab-index "NavigationPane*Frame1(TreeTab)" 0)
Reading "//wsl.localhost/Ubuntu/usr/lib/openfoam/openfoam2312/run/test/fluentInterface/test.msh"...
3D mesh
nodes: 89
cells: 27
faces: 132
generating pointers...done.
extracting boundary entities...
 moved 82 nodes from interior zone to zone 17.
 82 boundary nodes.
 78 boundary faces.
 7 boundary face zones.
done.
generating cells...done.
analyzing boundary connectivity...done.
'\\\\wsl.localhost\\Ubuntu\\usr\\lib\\openfoam\\openfoam2312\\run\\test\\fluentInterface'
CMD.EXE was started with the above path as the current directory.
UNC paths are not supported.  Defaulting to Windows directory.
'\\\\wsl.localhost\\Ubuntu\\usr\\lib\\openfoam\\openfoam2312\\run\\test\\fluentInterface'
CMD.EXE was started with the above path as the current directory.
UNC paths are not supported.  Defaulting to Windows directory.

Meshing> (newline)


Meshing> (cx-gui-do cx-activate-item "Color Theme Change*Table1*PushButton3(classic_light)")
(cx-gui-do cx-activate-item "Color Theme Change*Table1*PushButton3(classic_light)")
(cx-gui-do cx-activate-item "Color Theme Change*PanelButtons*PushButton1(OK)")
'\\\\wsl.localhost\\Ubuntu\\usr\\lib\\openfoam\\openfoam2312\\run\\test\\fluentInterface'
CMD.EXE was started with the above path as the current directory.
UNC paths are not supported.  Defaulting to Windows directory.
'\\\\wsl.localhost\\Ubuntu\\usr\\lib\\openfoam\\openfoam2312\\run\\test\\fluentInterface'
CMD.EXE was started with the above path as the current directory.
UNC paths are not supported.  Defaulting to Windows directory.
(cx-gui-do cx-activate-item "Key Behavioral Changes*PanelButtons*PushButton1(OK)")
(cx-gui-do cx-activate-item "Ribbon*Frame1*Frame2(Task Page)*Table1*Table3(Mesh)*PushButton1(  Check)")
(cx-gui-do cx-activate-item "Ribbon*Frame1*Frame2(Task Page)*Table1*Table3(Mesh)*PushButton1(  Check)")
(cx-use-window-id 51)
(cx-gui-do cx-activate-item "Ribbon*Frame1*ButtonBox1*PushButton1(viewcomponents)")
/exit y
'\\\\wsl.localhost\\Ubuntu\\usr\\lib\\openfoam\\openfoam2312\\run\\test\\fluentInterface'
CMD.EXE was started with the above path as the current directory.
UNC paths are not supported.  Defaulting to Windows directory.
Auto-Transcript Stop Time:  12:22:42, 10 Nov 2024 Nepal Standard Time 
Total Transcript Time: 2 Minute 13 Second.
